REMARK  0 active torsions:
REMARK  status: ('A' for Active; 'I' for Inactive)
ROOT
HETATM    1 CU1          0       0.705  -2.366   0.406  1.00  0.00     0.000 Cu
HETATM    2 CL2          0      -1.024  -0.958  -0.033  1.00  0.00     0.000 Cl
HETATM    3 CL3          0       2.578  -1.638  -0.660  1.00  0.00     0.000 Cl
ENDROOT
TORSDOF 0
