REMARK  12 active torsions:
REMARK  status: ('A' for Active; 'I' for Inactive)
REMARK    1  A    between atoms: O2_2  and  C12_12 
REMARK    2  A    between atoms: O2_2  and  C24_24 
REMARK    3  A    between atoms: O3_3  and  C18_18 
REMARK    4  A    between atoms: O4_4  and  C23_23 
REMARK    5  A    between atoms: O5_5  and  C25_25 
REMARK    6  A    between atoms: O6_6  and  C26_26 
REMARK    7  A    between atoms: O8_8  and  C27_27 
REMARK    8  A    between atoms: O9_9  and  C31_31 
REMARK    9  A    between atoms: O10_10  and  C32_32 
REMARK   10  A    between atoms: O11_11  and  C33_33 
REMARK   11  A    between atoms: C13_13  and  C16_16 
REMARK   12  A    between atoms: C24_24  and  C28_28 
ROOT
HETATM    1  O1          0      -1.118  -1.763  -0.644  1.00  0.00    -0.338 OA
HETATM    2  C12         0      -0.811  -0.600   1.507  1.00  0.00     0.170 C 
HETATM    3  C13         0      -1.787  -1.263   0.525  1.00  0.00     0.192 C 
HETATM    4  C14         0       0.216  -1.629   1.975  1.00  0.00     0.080 C 
HETATM    5  C15         0       0.695  -2.476   0.827  1.00  0.00     0.011 A 
HETATM    6  C17         0       0.009  -2.502  -0.394  1.00  0.00     0.081 A 
HETATM    7  C18         0       1.838  -3.272   0.982  1.00  0.00     0.077 A 
HETATM    8  C19         0       0.483  -3.279  -1.454  1.00  0.00     0.074 A 
HETATM    9  C22         0       2.302  -4.059  -0.073  1.00  0.00     0.073 A 
HETATM   10  C23         0       1.627  -4.059  -1.291  1.00  0.00     0.071 A 
ENDROOT
BRANCH   2  11
HETATM   11  O2          0      -0.133   0.482   0.867  1.00  0.00    -0.309 OA
BRANCH  11  12
HETATM   12  C24         0       0.780   1.139   1.629  1.00  0.00     0.294 C 
HETATM   13  O7          0       0.742   1.280   2.841  1.00  0.00    -0.259 OA
BRANCH  12  14
HETATM   14  C28         0       1.868   1.686   0.779  1.00  0.00     0.045 A 
HETATM   15  C30         0       2.204   1.022  -0.384  1.00  0.00     0.057 A 
HETATM   16  C31         0       3.226   1.536  -1.182  1.00  0.00     0.102 A 
HETATM   17  C33         0       3.889   2.703  -0.801  1.00  0.00     0.132 A 
HETATM   18  C32         0       3.530   3.356   0.378  1.00  0.00     0.102 A 
HETATM   19  C29         0       2.509   2.841   1.177  1.00  0.00     0.057 A 
BRANCH  16  20
HETATM   20  O9          0       3.566   0.891  -2.333  1.00  0.00    -0.358 OA
HETATM   21  H49         0       3.003   0.104  -2.434  1.00  0.00     0.217 HD
ENDBRANCH  16  20
BRANCH  17  22
HETATM   22  O11         0       4.887   3.206  -1.582  1.00  0.00    -0.356 OA
HETATM   23  H51         0       5.228   4.015  -1.161  1.00  0.00     0.218 HD
ENDBRANCH  17  22
BRANCH  18  24
HETATM   24  O10         0       4.170   4.496   0.761  1.00  0.00    -0.358 OA
HETATM   25  H50         0       3.790   4.806   1.601  1.00  0.00     0.217 HD
ENDBRANCH  18  24
ENDBRANCH  12  14
ENDBRANCH  11  12
ENDBRANCH   2  11
BRANCH   3  26
HETATM   26  C16         0      -2.898  -0.317   0.110  1.00  0.00    -0.021 A 
HETATM   27  C20         0      -4.075  -0.258   0.854  1.00  0.00     0.049 A 
HETATM   28  C26         0      -5.097   0.611   0.472  1.00  0.00     0.102 A 
HETATM   29  C27         0      -4.941   1.420  -0.654  1.00  0.00     0.132 A 
HETATM   30  C25         0      -3.762   1.359  -1.398  1.00  0.00     0.102 A 
HETATM   31  C21         0      -2.740   0.490  -1.016  1.00  0.00     0.049 A 
BRANCH  28  32
HETATM   32  O6          0      -6.243   0.662   1.207  1.00  0.00    -0.358 OA
HETATM   33  H47         0      -6.173   0.035   1.947  1.00  0.00     0.217 HD
ENDBRANCH  28  32
BRANCH  29  34
HETATM   34  O8          0      -5.939   2.270  -1.026  1.00  0.00    -0.356 OA
HETATM   35  H48         0      -5.654   2.748  -1.825  1.00  0.00     0.218 HD
ENDBRANCH  29  34
BRANCH  30  36
HETATM   36  O5          0      -3.597   2.143  -2.500  1.00  0.00    -0.358 OA
HETATM   37  H46         0      -2.722   1.966  -2.887  1.00  0.00     0.217 HD
ENDBRANCH  30  36
ENDBRANCH   3  26
BRANCH   7  38
HETATM   38  O3          0       2.521  -3.295   2.163  1.00  0.00    -0.360 OA
HETATM   39  H42         0       3.279  -3.899   2.082  1.00  0.00     0.217 HD
ENDBRANCH   7  38
BRANCH  10  40
HETATM   40  O4          0       2.082  -4.822  -2.322  1.00  0.00    -0.361 OA
HETATM   41  H43         0       1.494  -4.702  -3.088  1.00  0.00     0.217 HD
ENDBRANCH  10  40
TORSDOF 12
